examples/data/enwl/lv-network-models/Network_14/Feeder_2/Loads.dss
New Load.LOAD1 Phases=1 Bus1=80.1 kV=0.23 kW=1 PF=0.95
New Load.LOAD2 Phases=1 Bus1=81.2 kV=0.23 kW=1 PF=0.95
New Load.LOAD3 Phases=1 Bus1=82.3 kV=0.23 kW=1 PF=0.95
New Load.LOAD4 Phases=1 Bus1=83.1 kV=0.23 kW=1 PF=0.95
New Load.LOAD5 Phases=1 Bus1=84.2 kV=0.23 kW=1 PF=0.95
New Load.LOAD6 Phases=1 Bus1=85.3 kV=0.23 kW=1 PF=0.95
New Load.LOAD7 Phases=1 Bus1=86.1 kV=0.23 kW=1 PF=0.95
New Load.LOAD8 Phases=1 Bus1=87.2 kV=0.23 kW=1 PF=0.95
New Load.LOAD9 Phases=1 Bus1=88.3 kV=0.23 kW=1 PF=0.95
New Load.LOAD10 Phases=1 Bus1=89.1 kV=0.23 kW=1 PF=0.95
New Load.LOAD11 Phases=1 Bus1=90.2 kV=0.23 kW=1 PF=0.95
New Load.LOAD12 Phases=1 Bus1=91.3 kV=0.23 kW=1 PF=0.95
New Load.LOAD13 Phases=1 Bus1=92.1 kV=0.23 kW=1 PF=0.95
New Load.LOAD14 Phases=1 Bus1=93.2 kV=0.23 kW=1 PF=0.95
New Load.LOAD15 Phases=1 Bus1=94.3 kV=0.23 kW=1 PF=0.95
New Load.LOAD16 Phases=1 Bus1=95.1 kV=0.23 kW=1 PF=0.95
New Load.LOAD17 Phases=1 Bus1=96.2 kV=0.23 kW=1 PF=0.95
New Load.LOAD18 Phases=1 Bus1=97.3 kV=0.23 kW=1 PF=0.95
New Load.LOAD19 Phases=1 Bus1=98.1 kV=0.23 kW=1 PF=0.95
New Load.LOAD20 Phases=1 Bus1=99.2 kV=0.23 kW=1 PF=0.95
New Load.LOAD21 Phases=1 Bus1=100.3 kV=0.23 kW=1 PF=0.95
New Load.LOAD22 Phases=1 Bus1=101.1 kV=0.23 kW=1 PF=0.95
New Load.LOAD23 Phases=1 Bus1=102.2 kV=0.23 kW=1 PF=0.95
New Load.LOAD24 Phases=1 Bus1=103.3 kV=0.23 kW=1 PF=0.95
New Load.LOAD25 Phases=1 Bus1=104.1 kV=0.23 kW=1 PF=0.95
New Load.LOAD26 Phases=1 Bus1=105.2 kV=0.23 kW=1 PF=0.95
New Load.LOAD27 Phases=1 Bus1=106.3 kV=0.23 kW=1 PF=0.95
New Load.LOAD28 Phases=1 Bus1=107.1 kV=0.23 kW=1 PF=0.95